src/tests/data/grids/ucte/multipleStatusTests.uct
##C 2007.05.01
Generated by powsybl, 2019.09.23 17:47
Case date: 2019.09.24 19:30
##N
##ZBE
B1111111              0 0        0.00000 0.00000 0.00000 0.00000
B1111112              1 0        0.00000 0.00000 0.00000 0.00000
B1111113              1 0        0.00000 0.00000 0.00000 0.00000
B1111121              0 0        0.00000 0.00000 0.00000 0.00000
B2111121              1 0        0.00000 0.00000 0.00000 0.00000
##ZFR
F1111111              0 0        0.00000 0.00000 0.00000 0.00000
F1111112              1 0        0.00000 0.00000 0.00000 0.00000
F1111113              1 0        0.00000 0.00000 0.00000 0.00000
F1111121              0 0        0.00000 0.00000 0.00000 0.00000
F2111121              1 0        0.00000 0.00000 0.00000 0.00000
##ZXX
X1111111              0 0        0.00000 0.00000 0.00000 0.00000
X1111112              1 0        0.00000 0.00000 0.00000 0.00000
X1111113              1 0        0.00000 0.00000 0.00000 0.00000
X1111121              0 0        0.00000 0.00000 0.00000 0.00000
X2111121              1 0        0.00000 0.00000 0.00000 0.00000
##L
B1111111 X1111111 1 1 0.5500 0.2000 0.000000   5051
B1111112 X1111112 1 9 0.5500 0.2000 0.000000   5051
B1111113 X1111113 1 0 0.5500 0.2000 0.000000   5051
B1111121 X1111121 1 8 0.5500 0.2000 0.000000   5051
B2111121 X2111121 1 1 0.5500 0.2000 0.000000   5051
F1111111 F1111112 1 2 0.0000 0.0000 0.000000 999999
F1111111 F1111113 1 7 0.0000 0.0000 0.000000 999999
F1111111 X1111111 1 1 0.5500 0.2000 0.000000   5051
F1111112 X1111112 1 9 0.5500 0.2000 0.000000   5051
F1111113 X1111113 1 0 0.5500 0.2000 0.000000   5051
F1111121 F2111121 1 8 0.5500 0.2000 0.000000   5051
F1111121 F2111121 2 0 0.5500 0.2000 0.000000   5051
F1111121 F2111121 3 1 0.5500 0.2000 0.000000   5051
F1111121 F2111121 4 9 0.5500 0.2000 0.000000   5051
F1111121 X1111121 1 8 0.5500 0.2000 0.000000   5051
F2111121 X2111121 1 0 0.5500 0.2000 0.000000   5051
##T
F1111111 F1111121 1 0 400.0 225.0 10000 0.5500 0.2000 13.25000 0.0000   5000
F1111112 F1111121 1 1 400.0 225.0 10000 0.5500 0.2000 13.25000 0.0000   5000
F1111112 F1111121 2 9 400.0 225.0 10000 0.5500 0.2000 13.25000 0.0000   5000
F1111113 F1111121 1 8 400.0 225.0 10000 0.5500 0.2000 13.25000 0.0000   5000
##R